/*--------------------------------*- C++ -*----------------------------------*\
| =========                 |                                                 |
| \\      /  F ield         | OpenFOAM: The Open Source CFD Toolbox           |
|  \\    /   O peration     | Version:  2.3.0                                 |
|   \\  /    A nd           | Web:      www.OpenFOAM.org                      |
|    \\/     M anipulation  |                                                 |
\*---------------------------------------------------------------------------*/
FoamFile
{
    version     2.0;
    format      ascii;
    class       dictionary;
    location    "constant";
    object      thermophysicalProperties;
}
// * * * * * * * * * * * * * * * * * * * * * * * * * * * * * * * * * * * * * //

thermoType
{
    type            heRhoQGDThermo;
    mixture         pureMixture;
    transport       const;
    thermo          hConst;
    equationOfState covolumeGas;
    specie          specie;
    energy          sensibleInternalEnergy;
}

mixture
{
    specie
    {
        nMoles          1;
        molWeight       27713.33333;
    }
    equationOfState
    {
        b               0.001;
    }
    thermodynamics
    {
        Cp              1.3;
        Hf              0.0;
        Tref            0.0;
    }
    transport
    {
        mu              0;
        Pr              1;
    }
}

QGD
{
    implicitDiffusion true;
    QGDCoeffs constScPrModel1;
    constScPrModel1Dict
    {
        ScQGD 0.25;
        PrQGD 1;
    }
}



// ************************************************************************* //
