/*--------------------------------*- C++ -*----------------------------------*\
| =========                 |                                                 |
| \\      /  F ield         | OpenFOAM: The Open Source CFD Toolbox           |
|  \\    /   O peration     | Version:  2.3.0                                 |
|   \\  /    A nd           | Web:      www.OpenFOAM.org                      |
|    \\/     M anipulation  |                                                 |
\*---------------------------------------------------------------------------*/
FoamFile
{
    version     4.1;
    format      ascii;
    class       dictionary;
    location    "constant";
    object      thermophysicalProperties;
}
// * * * * * * * * * * * * * * * * * * * * * * * * * * * * * * * * * * * * * //

thermoType
{
    type            heRhoQGDThermo;
    mixture         pureMixture;
    transport       const;
    thermo          hConst;
    equationOfState rhoConst;
    specie          specie;
    energy          sensibleInternalEnergy;
}

// Note: these are the properties for fuel

mixture
{
    specie
    {
        nMoles          1;
        molWeight       28.96;
    }

    
    thermodynamics
    {
        Hf              0;
        Sf              0;
        Cp              1;
        Cv              1;
    }
    
    transport
    {
        //mu 8e-5;
        mu   1e-3;
        Pr   0.73;
        beta 0.0;
    }
    
    equationOfState
    {
        rho 1;
    }
}

mul  mul [1 -1 -1 0 0]            1e-3;
rhol rhol [1 -3 0 0 0]            1000;
mug  mug [1 -1 -1 0 0]            1e-5;
rhog rhog [1 -3 0 0 0]            1;

QGD
{
    implicitDiffusion true;
    QGDCoeffs twoPhaseConstTau;

    twoPhaseConstTauDict
    {
        tau1 0.25e-4; //liquid
        tau2 2.50e-4; //air
    }
}
