/*--------------------------------*- C++ -*----------------------------------*\
| =========                 |                                                 |
| \\      /  F ield         | OpenFOAM: The Open Source CFD Toolbox           |
|  \\    /   O peration     | Version:  v1912                                 |
|   \\  /    A nd           | Website:  www.openfoam.com                      |
|    \\/     M anipulation  |                                                 |
\*---------------------------------------------------------------------------*/
FoamFile
{
    version     2.0;
    format      ascii;
    class       volScalarField;
    object      T;
}
// * * * * * * * * * * * * * * * * * * * * * * * * * * * * * * * * * * * * * //

dimensions      [0 0 0 1 0 0 0];

internalField   uniform 293.0;

boundaryField
{
     inlet
    {
        type            fixedValue;
        value           uniform 293.0;
    }

    outlet
    {
        type            zeroGradient;
    }

    "(topAndBottom|back)"
    {
        type            zeroGradient;
    }

    sym
    {
        type            symmetry;
    }

    leftwall
    {
        type            zeroGradient;
    }
}

// ************************************************************************* //
