/*--------------------------------*- C++ -*----------------------------------*\
| =========                 |                                                 |
| \\      /  F ield         | foam-extend: Open Source CFD                    |
|  \\    /   O peration     | Version:     3.1                                |
|   \\  /    A nd           | Web:         http://www.extend-project.de       |
|    \\/     M anipulation  |                                                 |
\*---------------------------------------------------------------------------*/
FoamFile
{
    version     2.0;
    format      ascii;
    class       volScalarField;
    object      p;
}
// * * * * * * * * * * * * * * * * * * * * * * * * * * * * * * * * * * * * * //

dimensions      [1 -1 -2 0 0 0 0];

internalField   uniform 0;

boundaryField
{
    outlet
    {
        type            totalPressure;
        value		uniform 0;
        p0		uniform 0;
        phi		phi;
        rho		rho;
        psi		none;
        gamma		1;
    }

    inlet1
    {
        type            zeroGradient;
        value           uniform 0;
    }

    inlet2
    {
        type            zeroGradient;
        value           uniform 0;
    }

    walls
    {
        type            slip;
    }


    frontAndBack
    {
        type            empty;
    }
}

// ************************************************************************* //
