/*--------------------------------*- C++ -*----------------------------------*\
| =========                 |                                                 |
| \\      /  F ield         | OpenFOAM: The Open Source CFD Toolbox           |
|  \\    /   O peration     | Version:  2.3.0                                 |
|   \\  /    A nd           | Web:      www.OpenFOAM.org                      |
|    \\/     M anipulation  |                                                 |
\*---------------------------------------------------------------------------*/
FoamFile
{
    version     2.0;
    format      ascii;
    class       dictionary;
    location    "system";
    object      fvSchemes;
}
// * * * * * * * * * * * * * * * * * * * * * * * * * * * * * * * * * * * * * //

ddtSchemes
{
    default         Euler;
}

gradSchemes
{
    default         Gauss linear;
}

divSchemes
{
    default         Gauss linear;
}

laplacianSchemes
{
    default         Gauss linear corrected;
}

interpolationSchemes
{
    default         none;
}

snGradSchemes
{
    default         corrected;
}

fluxRequired
{
    default	none;
    U;
}

fvsc
{
    grad(p)          extendedFaceStencil;
    grad(U)          extendedFaceStencil;
    grad(e)          extendedFaceStencil;
    div(U)           extendedFaceStencil;
    grad((1|rho))    extendedFaceStencil;
    div((rho*(U*U))) extendedFaceStencil;
    div(rhoUU)       extendedFaceStencil;
}

// ************************************************************************* //
