/*--------------------------------*- C++ -*----------------------------------*\
| =========                 |                                                 |
| \\      /  F ield         | OpenFOAM: The Open Source CFD Toolbox           |
|  \\    /   O peration     | Version:  v1912                                 |
|   \\  /    A nd           | Website:  www.openfoam.com                      |
|    \\/     M anipulation  |                                                 |
\*---------------------------------------------------------------------------*/
FoamFile
{
    version     2.0;
    format      ascii;
    class       polyBoundaryMesh;
    location    "constant/polyMesh";
    object      boundary;
}
// * * * * * * * * * * * * * * * * * * * * * * * * * * * * * * * * * * * * * //

7
(
    inlet
    {
        type            patch;
        nFaces          40;
        startFace       38080;
    }
    outlet
    {
        type            patch;
        nFaces          80;
        startFace       38120;
    }
    freestreamInlet
    {
        type            wall;
        inGroups        1(wall);
        nFaces          40;
        startFace       38200;
    }
    freestream
    {
        type            patch;
        nFaces          240;
        startFace       38240;
    }
    wedge1
    {
        type            wedge;
        inGroups        1(wedge);
        nFaces          19200;
        startFace       38480;
    }
    wedge2
    {
        type            wedge;
        inGroups        1(wedge);
        nFaces          19200;
        startFace       57680;
    }
    defaultFaces
    {
        type            empty;
        inGroups        1(empty);
        nFaces          0;
        startFace       76880;
    }
)

// ************************************************************************* //
