/*--------------------------------*- C++ -*----------------------------------*\
| =========                 |                                                 |
| \\      /  F ield         | OpenFOAM: The Open Source CFD Toolbox           |
|  \\    /   O peration     | Version:  v1912                                 |
|   \\  /    A nd           | Website:  www.openfoam.com                      |
|    \\/     M anipulation  |                                                 |
\*---------------------------------------------------------------------------*/
FoamFile
{
    version     2.0;
    format      ascii;
    class       dictionary;
    object      blockMeshDict;
}
// * * * * * * * * * * * * * * * * * * * * * * * * * * * * * * * * * * * * * //

scale   1;

vertices
(
    (0 0 0)
    (95 0 0)
    (105 0 0)
    (200 0 0)
    (200 95 0)
    (200 170 0)
    (200 200 0)
    (105 200 0)
    (95 200 0)
    (0 200 0)
    (0 170 0)
    (0 95 0)
    (95 95 0)
    (105 95 0)
    (105 170 0)
    (95 170 0)
    //
    (0 0 0.1)
    (95 0 0.1)
    (105 0 0.1)
    (200 0 0.1)
    (200 95 0.1)
    (200 170 0.1)
    (200 200 0.1)
    (105 200 0.1)
    (95 200 0.1)
    (0 200 0.1)
    (0 170 0.1)
    (0 95 0.1)
    (95 95 0.1)
    (105 95 0.1)
    (105 170 0.1)
    (95 170 0.1)
);

blocks
(
    hex (2 3 4 13 18 19 20 29) (95 95 1) simpleGrading (1 1 1)
    hex (13 4 5 14 29 20 21 30) (95 75 1) simpleGrading (1 1 1)
    hex (12 13 14 15 28 29 30 31) (10 75 1) simpleGrading (1 1 1)
    hex (14 5 6 7 30 21 22 23) (95 30 1) simpleGrading (1 1 1)
    hex (11 12 15 10 27 28 31 26) (95 75 1) simpleGrading (1 1 1)
    hex (0 1 12 11 16 17 28 27) (95 95 1) simpleGrading (1 1 1)
    hex (8 9 10 15 24 25 26 31) (95 30 1) simpleGrading (1 1 1)
);

edges
(
);

boundary
(
	walls
	{
		type wall;
		faces
		(
			(13 2 18 29)
			(3 4 20 19)
			(2 3 19 18)
			(4 5 21 20)
			(14 15 31 30)
			(12 13 29 28)
			(5 6 22 21)
			(6 7 23 22)
			(7 14 30 23)
			(10 11 27 26)
			(11 0 16 27)
			(0 1 17 16)
			(1 12 28 17)
			(9 10 26 25)
			(8 9 25 24)
			(15 8 24 31)
		);
	}
    frontAndBack
    {
        type empty;
        faces
        (
			(18 19 20 29)
			(2 13 4 3)
			(13 14 5 4)
			(20 21 30 29)
			(15 14 13 12)
			(28 29 30 31)
			(7 6 5 14)
			(21 22 23 30)
			(15 12 11 10)
			(26 27 28 31)
			(11 12 1 0)
			(16 17 28 27)
			(10 9 8 15)
			(26 31 24 25)
        );
    }
);

mergePatchPairs
(
);

// ************************************************************************* //
