/*--------------------------------*- C++ -*----------------------------------*\
| =========                 |                                                 |
| \\      /  F ield         | OpenFOAM: The Open Source CFD Toolbox           |
|  \\    /   O peration     | Version:  5                                     |
|   \\  /    A nd           | Web:      www.OpenFOAM.org                      |
|    \\/     M anipulation  |                                                 |
\*---------------------------------------------------------------------------*/
FoamFile
{
    version     2.0;
    format      ascii;
    class       volScalarField;
    object      alphaQGD;
}
// * * * * * * * * * * * * * * * * * * * * * * * * * * * * * * * * * * * * * //

dimensions      [0 0 0 0 0 0 0];

internalField   uniform 0.2;

boundaryField
{
    movingWall
    {
        type            calculated;
        value		$internalField;
    }

    farFieldMoving
    {
        type            calculated;
        value		$internalField;
    }

    fixedWall
    {
        type            calculated;
        value		$internalField;
    }

    left
    {
        type            calculated;
        value		$internalField;
    }

    farField
    {
        type            calculated;
        value		$internalField;
    }

    back
    {
        type            wedge;
    }

    front
    {
        type            wedge;
    }
}

// ************************************************************************* //
