/*--------------------------------*- C++ -*----------------------------------*\
| =========                 |                                                 |
| \\      /  F ield         | OpenFOAM: The Open Source CFD Toolbox           |
|  \\    /   O peration     | Version:  v1912                                 |
|   \\  /    A nd           | Website:  www.openfoam.com                      |
|    \\/     M anipulation  |                                                 |
\*---------------------------------------------------------------------------*/
FoamFile
{
    version     2.0;
    format      ascii;
    class       polyBoundaryMesh;
    location    "constant/polyMesh";
    object      boundary;
}
// * * * * * * * * * * * * * * * * * * * * * * * * * * * * * * * * * * * * * //

4
(
    rotor
    {
        type            wall;
        inGroups        1(wall);
        nFaces          144;
        startFace       5640;
    }
    freestream
    {
        type            patch;
        nFaces          96;
        startFace       5784;
    }
    front
    {
        type            empty;
        inGroups        1(empty);
        nFaces          2880;
        startFace       5880;
    }
    back
    {
        type            empty;
        inGroups        1(empty);
        nFaces          2880;
        startFace       8760;
    }
)

// ************************************************************************* //
