/*--------------------------------*- C++ -*----------------------------------*\
| =========                 |                                                 |
| \\      /  F ield         | OpenFOAM: The Open Source CFD Toolbox           |
|  \\    /   O peration     | Version:  4.1                                   |
|   \\  /    A nd           | Web:      www.OpenFOAM.org                      |
|    \\/     M anipulation  |                                                 |
\*---------------------------------------------------------------------------*/
FoamFile
{
    version     2.0;
    format      binary;
    class       polyBoundaryMesh;
    location    "constant/polyMesh";
    object      boundary;
}
// * * * * * * * * * * * * * * * * * * * * * * * * * * * * * * * * * * * * * //

6
(
    inlet
    {
        type            patch;
        nFaces          15;
        startFace       22751;
    }
    outlet
    {
        type            patch;
        nFaces          289;
        startFace       22766;
    }
    axes
    {
        type            patch;
        nFaces          0;
        startFace       23055;
    }
    walls
    {
        type            wall;
        inGroups        1(wall);
        nFaces          4;
        startFace       23055;
    }
    wedge1
    {
        type            wedge;
        inGroups        1(wedge);
        nFaces          11490;
        startFace       23059;
    }
    wedge2
    {
        type            wedge;
        inGroups        1(wedge);
        nFaces          11490;
        startFace       34549;
    }
)

// ************************************************************************* //
