/*--------------------------------*- C++ -*----------------------------------*\
| =========                 |                                                 |
| \\      /  F ield         | OpenFOAM: The Open Source CFD Toolbox           |
|  \\    /   O peration     | Version:  v1812                                 |
|   \\  /    A nd           | Web:      www.OpenFOAM.com                      |
|    \\/     M anipulation  |                                                 |
\*---------------------------------------------------------------------------*/
FoamFile
{
    version     2.0;
    format      ascii;
    class       polyBoundaryMesh;
    location    "constant/polyMesh";
    object      boundary;
}
// * * * * * * * * * * * * * * * * * * * * * * * * * * * * * * * * * * * * * //

3
(
    movingWall
    {
        type            wall;
        inGroups        1(wall);
        nFaces          400;
        startFace       22800;
    }
    fixedWalls
    {
        type            wall;
        inGroups        1(wall);
        nFaces          1200;
        startFace       23200;
    }
    frontAndBack
    {
        type            slip;
        inGroups        1(slip);
        nFaces          800;
        startFace       24400;
        faces           ( ( 0 3 2 1 ) ( 4 5 6 7 ) );
    }
)

// ************************************************************************* //
